<nodes>
    <node id="main_start" x="0.0" y="50.0" />
    <node id="junction" x="30.0" y="50.0" type="right_before_left" />
    <node id="main_end" x="70.0" y="50.0" />
    <node id="side_start" x="30" y="0.0" />
</nodes>