<nodes>
    <node id="hor_left" x="0.0" y="30.0" />
    <node id="hor_right" x="60.0" y="30.0" />
    <node id="ver_down" x="30.0" y="0" />
    <node id="ver_up" x="30.0" y="60.0" />
    <node id="junction" x="30.0" y="30.0" type="traffic_light" />
</nodes>