<edges>
    <edge from="hor_left" to="junction" id="hor_left_to_junction" />
    <edge from="hor_right" to="junction" id="hor_right_to_junction" />
    <edge from="ver_down" to="junction" id="ver_down_to_junction" />
    <edge from="ver_up" to="junction" id="ver_up_to_junction" />

    <edge from="junction" to="hor_left" id="junction_to_hor_left" />
    <edge from="junction" to="hor_right" id="junction_to_hor_right" />
    <edge from="junction" to="ver_down" id="junction_to_ver_down" />
    <edge from="junction" to="ver_up" id="junction_to_ver_up" />
</edges>