<configuration>
    <input>
        <net-file value="bidir_3way_junction.net.xml"/>
        <route-files value="bidir_3way_junction.rou.xml"/>
        <gui-settings-file value="bidir_3way_junction.settings.xml"/>
    </input>
    <time>
        <begin value="0"/>
        <end value="10000"/>
    </time>
    <output>
        <fcd-output value="sim.xml" />
    </output>
</configuration>