<nodes>
    <node id="hor_left" x="0.0" y="60.0" />
    <node id="hor_right" x="120.0" y="60.0" />
    <node id="ver_down" x="60.0" y="0" />
    <node id="ver_up" x="60.0" y="120.0" />
    <node id="junction" x="60.0" y="60.0" type="traffic_light" />
</nodes>