<?xml version="1.0" encoding="UTF-8"?>

<!-- generated on 2024-05-09 17:25:22 by Eclipse SUMO netconvert Version 1.19.0
<configuration xmlns:xsi="http://www.w3.org/2001/XMLSchema-instance" xsi:noNamespaceSchemaLocation="http://sumo.dlr.de/xsd/netconvertConfiguration.xsd">

    <input>
        <node-files value="sumo_unidir_4way_junction.nod.xml"/>
        <edge-files value="sumo_unidir_4way_junction.edg.xml"/>
    </input>

    <output>
        <output-file value="sumo_unidir_4way_junction.net.xml"/>
    </output>

</configuration>
-->

<net version="1.16" junctionCornerDetail="5" limitTurnSpeed="5.50" xmlns:xsi="http://www.w3.org/2001/XMLSchema-instance" xsi:noNamespaceSchemaLocation="http://sumo.dlr.de/xsd/net_file.xsd">

    <location netOffset="0.00,0.00" convBoundary="0.00,0.00,60.00,60.00" origBoundary="0.00,0.00,60.00,60.00" projParameter="!"/>

    <edge id=":junction_0" function="internal">
        <lane id=":junction_0_0" index="0" speed="6.51" length="9.03" shape="30.00,35.60 30.35,33.15 31.40,31.40 33.15,30.35 35.60,30.00"/>
    </edge>
    <edge id=":junction_1" function="internal">
        <lane id=":junction_1_0" index="0" speed="6.51" length="9.03" shape="30.00,24.40 30.35,26.85 31.40,28.60 33.15,29.65 35.60,30.00"/>
    </edge>
    <edge id=":junction_2" function="internal">
        <lane id=":junction_2_0" index="0" speed="13.89" length="11.20" shape="24.40,30.00 35.60,30.00"/>
    </edge>

    <edge id="hor_left_to_junction" from="hor_left" to="junction" priority="-1" spreadType="center">
        <lane id="hor_left_to_junction_0" index="0" speed="13.89" length="24.40" shape="0.00,30.00 24.40,30.00"/>
    </edge>
    <edge id="junction_to_hor_right" from="junction" to="hor_right" priority="-1" spreadType="center">
        <lane id="junction_to_hor_right_0" index="0" speed="13.89" length="24.40" shape="35.60,30.00 60.00,30.00"/>
    </edge>
    <edge id="ver_down_to_junction" from="ver_down" to="junction" priority="-1" spreadType="center">
        <lane id="ver_down_to_junction_0" index="0" speed="13.89" length="24.40" shape="30.00,0.00 30.00,24.40"/>
    </edge>
    <edge id="ver_up_to_junction" from="ver_up" to="junction" priority="-1" spreadType="center">
        <lane id="ver_up_to_junction_0" index="0" speed="13.89" length="24.40" shape="30.00,60.00 30.00,35.60"/>
    </edge>

    <junction id="hor_left" type="dead_end" x="0.00" y="30.00" incLanes="" intLanes="" shape="0.00,31.60 0.00,28.40"/>
    <junction id="hor_right" type="dead_end" x="60.00" y="30.00" incLanes="junction_to_hor_right_0" intLanes="" shape="60.00,28.40 60.00,31.60"/>
    <junction id="junction" type="right_before_left" x="30.00" y="30.00" incLanes="ver_up_to_junction_0 ver_down_to_junction_0 hor_left_to_junction_0" intLanes=":junction_0_0 :junction_1_0 :junction_2_0" shape="28.40,35.60 31.60,35.60 32.04,33.38 32.60,32.60 33.38,32.04 34.38,31.71 35.60,31.60 35.60,28.40 33.38,27.96 32.60,27.40 32.04,26.62 31.71,25.62 31.60,24.40 28.40,24.40 27.96,26.62 27.40,27.40 26.62,27.96 25.62,28.29 24.40,28.40 24.40,31.60 26.62,32.04 27.40,32.60 27.96,33.38 28.29,34.38">
        <request index="0" response="110" foes="110" cont="0"/>
        <request index="1" response="000" foes="101" cont="0"/>
        <request index="2" response="010" foes="011" cont="0"/>
    </junction>
    <junction id="ver_down" type="dead_end" x="30.00" y="0.00" incLanes="" intLanes="" shape="28.40,0.00 31.60,0.00"/>
    <junction id="ver_up" type="dead_end" x="30.00" y="60.00" incLanes="" intLanes="" shape="31.60,60.00 28.40,60.00"/>

    <connection from="hor_left_to_junction" to="junction_to_hor_right" fromLane="0" toLane="0" via=":junction_2_0" dir="s" state="="/>
    <connection from="ver_down_to_junction" to="junction_to_hor_right" fromLane="0" toLane="0" via=":junction_1_0" dir="r" state="M"/>
    <connection from="ver_up_to_junction" to="junction_to_hor_right" fromLane="0" toLane="0" via=":junction_0_0" dir="l" state="="/>

    <connection from=":junction_0" to="junction_to_hor_right" fromLane="0" toLane="0" dir="l" state="M"/>
    <connection from=":junction_1" to="junction_to_hor_right" fromLane="0" toLane="0" dir="r" state="M"/>
    <connection from=":junction_2" to="junction_to_hor_right" fromLane="0" toLane="0" dir="s" state="M"/>

</net>
